NSC_100000
SItclcactv03031216073D 0   0.00000     0.00000     1
 
 29 31  0  0  0  0  0  0  0  0999 V2000
    0.2906    0.4933   -0.7757 N   0  0  0  0  0  0  0  0  0  0  0  0
    2.6311    2.3748    0.9594 O   0  0  0  0  0  0  0  0  0  0  0  0
    0.0654    2.7426   -0.4648 O   0  0  0  0  0  0  0  0  0  0  0  0
   -4.1329   -0.6790    1.1295 C   0  0  0  0  0  0  0  0  0  0  0  0
   -3.8923    0.6333    0.7679 C   0  0  0  0  0  0  0  0  0  0  0  0
   -3.3366   -1.6914    0.6276 C   0  0  0  0  0  0  0  0  0  0  0  0
   -2.8565    0.9331   -0.0970 C   0  0  0  0  0  0  0  0  0  0  0  0
   -2.3011   -1.3916   -0.2377 C   0  0  0  0  0  0  0  0  0  0  0  0
   -2.0610   -0.0794   -0.6000 C   0  0  0  0  0  0  0  0  0  0  0  0
    1.2351   -1.8577   -0.6863 C   0  0  0  0  0  0  0  0  0  0  0  0
    2.2827   -2.6336   -0.2269 C   0  0  0  0  0  0  0  0  0  0  0  0
    1.2127   -0.4925   -0.4318 C   0  0  0  0  0  0  0  0  0  0  0  0
    2.2676    0.0816    0.2961 C   0  0  0  0  0  0  0  0  0  0  0  0
    3.3223   -2.0648    0.4900 C   0  0  0  0  0  0  0  0  0  0  0  0
    3.3202   -0.7104    0.7545 C   0  0  0  0  0  0  0  0  0  0  0  0
    1.9694    1.5217    0.4053 C   0  0  0  0  0  0  0  0  0  0  0  0
    0.6678    1.6999   -0.3186 C   0  0  0  0  0  0  0  0  0  0  0  0
   -0.9324    0.2473   -1.5437 C   0  0  0  0  0  0  0  0  0  0  0  0
   -4.9394   -0.9128    1.8088 H   0  0  0  0  0  0  0  0  0  0  0  0
   -4.5147    1.4242    1.1597 H   0  0  0  0  0  0  0  0  0  0  0  0
   -3.5244   -2.7166    0.9104 H   0  0  0  0  0  0  0  0  0  0  0  0
   -2.6689    1.9584   -0.3801 H   0  0  0  0  0  0  0  0  0  0  0  0
   -1.6794   -2.1826   -0.6304 H   0  0  0  0  0  0  0  0  0  0  0  0
    0.4311   -2.3145   -1.2443 H   0  0  0  0  0  0  0  0  0  0  0  0
    2.2909   -3.6944   -0.4296 H   0  0  0  0  0  0  0  0  0  0  0  0
    4.1347   -2.6822    0.8438 H   0  0  0  0  0  0  0  0  0  0  0  0
    4.1301   -0.2656    1.3137 H   0  0  0  0  0  0  0  0  0  0  0  0
   -1.1858    1.1381   -2.1185 H   0  0  0  0  0  0  0  0  0  0  0  0
   -0.7727   -0.5901   -2.2229 H   0  0  0  0  0  0  0  0  0  0  0  0
  1 12  1  0  0  0  0
  1 17  1  0  0  0  0
  1 18  1  0  0  0  0
  2 16  2  0  0  0  0
  3 17  2  0  0  0  0
  4  5  2  0  0  0  0
  4  6  1  0  0  0  0
  5  7  1  0  0  0  0
  6  8  2  0  0  0  0
  7  9  2  0  0  0  0
  8  9  1  0  0  0  0
  9 18  1  0  0  0  0
 10 11  2  0  0  0  0
 10 12  1  0  0  0  0
 11 14  1  0  0  0  0
 12 13  2  0  0  0  0
 13 15  1  0  0  0  0
 13 16  1  0  0  0  0
 14 15  2  0  0  0  0
 16 17  1  0  0  0  0
  4 19  1  0  0  0  0
  5 20  1  0  0  0  0
  6 21  1  0  0  0  0
  7 22  1  0  0  0  0
  8 23  1  0  0  0  0
 10 24  1  0  0  0  0
 11 25  1  0  0  0  0
 14 26  1  0  0  0  0
 15 27  1  0  0  0  0
 18 28  1  0  0  0  0
 18 29  1  0  0  0  0
M  END
$$$$
